<configuration>
    <input>
        <net-file value="MySUMONet1.net.xml"/>
        <route-files value="sumo-rl.rou.xml"/>
    </input>
    <time>
        <begin value="0"/>
        <end value="20000"/>
    </time>
</configuration>